<?xml version="1.0" encoding="UTF-8"?>

<!-- generated on mié 18 jun 2025 21:15:11 by Eclipse SUMO netedit Version 1.8.0
<configuration xmlns:xsi="http://www.w3.org/2001/XMLSchema-instance" xsi:noNamespaceSchemaLocation="http://sumo.dlr.de/xsd/netconvertConfiguration.xsd">

    <input>
        <sumo-net-file value="/home/ricky/Documents/R.Vehicular/Trabajos-omnet/veins/examples/veins/erlangen.net.xml"/>
    </input>

    <output>
        <output-file value="/home/ricky/Documents/R.Vehicular/Trabajos-omnet/veins/examples/veins/erlangen.net.xml"/>
    </output>

    <processing>
        <geometry.min-radius.fix.railways value="false"/>
        <geometry.max-grade.fix value="false"/>
        <offset.disable-normalization value="true"/>
        <lefthand value="false"/>
    </processing>

    <junctions>
        <no-turnarounds value="true"/>
        <junctions.corner-detail value="0"/>
        <junctions.limit-turn-speed value="-1"/>
        <rectangular-lane-cut value="false"/>
    </junctions>

    <pedestrian>
        <walkingareas value="false"/>
    </pedestrian>

    <netedit>
        <route-files value="/home/ricky/Documents/R.Vehicular/Trabajos-omnet/veins/examples/veins/AS.rou.xml"/>
    </netedit>

    <report>
        <aggregate-warnings value="5"/>
    </report>

</configuration>
-->

<routes xmlns:xsi="http://www.w3.org/2001/XMLSchema-instance" xsi:noNamespaceSchemaLocation="http://sumo.dlr.de/xsd/routes_file.xsd">
    <vehicle id="vehicle_0" depart="0.00">
        <route edges="-4006676 -32302591#3 -4006684 -4006684 4006674#3 4006674#3 23605600#1 23605600#2" color="cyan"/>
    </vehicle>
</routes>
