<?xml version="1.0" encoding="UTF-8"?>

<configuration xmlns:xsi="http://www.w3.org/2001/XMLSchema-instance"
               xsi:noNamespaceSchemaLocation="http://sumo.dlr.de/xsd/sumoConfiguration.xsd">

    <input>
        <net-file value="erlangen.net.xml"/>
        <route-files value="erlangen.rou.xml"/>
        <additional-files value="erlangen.poly.xml"/>
    </input>

    <time>
        <begin value="0"/>
        <end value="1000"/>
        <step-length value="0.1"/>
    </time>

    <report>
        <xml-validation value="never"/>
        <xml-validation.net value="never"/>
        <no-step-log value="true"/>
    </report>

    <gui_only>
        <start value="true"/>
    </gui_only>
    
    <processing>
        <!-- 🔴 Habilita advertencia de colisiones en vez de eliminar vehículos -->
        <collision.action value="warn"/>
        <collision.check-junctions value="true"/>
        <collision.mingap-factor value="0.5"/>
        <collision.stoptime value="30"/> <!-- Tiempo de detención tras colisión -->
    </processing>

    <!-- 🔄 Reencaminamiento dinámico activado -->
    <routing>
        <device.rerouting.probability value="1.0"/>
        <device.rerouting.period value="5"/>
        <device.rerouting.adaptation-interval value="5"/>
        <device.rerouting.with-taz value="false"/>
    </routing>

</configuration>

